<?xml version="1.0" encoding="UTF-8"?>

<!-- generated on 2025-11-14 15:02:03 by Eclipse SUMO polyconvert Version 1.24.0
<polyconvertConfiguration xmlns:xsi="http://www.w3.org/2001/XMLSchema-instance" xsi:noNamespaceSchemaLocation="http://sumo.dlr.de/xsd/polyconvertConfiguration.xsd">

    <input>
        <net-file value="rainbow.net.xml"/>
        <osm-files value="rainbow.osm"/>
        <type-file value="typemap.xml"/>
    </input>

    <output>
        <output-file value="map.poly.xml"/>
    </output>

</polyconvertConfiguration>
-->

<additional xmlns:xsi="http://www.w3.org/2001/XMLSchema-instance" xsi:noNamespaceSchemaLocation="http://sumo.dlr.de/xsd/additional_file.xsd">
    <location netOffset="-656438.65,-4001336.51" convBoundary="-1594.99,0.00,6168.84,6103.31" origBoundary="-115.278596,36.144008,-115.192267,36.199019" projParameter="+proj=utm +zone=11 +ellps=WGS84 +datum=WGS84 +units=m +no_defs"/>

    <poly id="1072472642" type="amenity" color="237,199,199" fill="1" layer="-1.00" shape="1583.976957,1639.733374 1583.264488,1652.748343 1571.541389,1652.114518 1572.253840,1639.099548 1583.976957,1639.733374"/>
    <poly id="1072472643" type="building" color="255,230,230" fill="1" layer="-1.00" shape="1603.704356,1657.534860 1588.149389,1656.809466 1589.390656,1632.973407 1604.945666,1633.698802 1603.704356,1657.534860"/>
    <poly id="1072472643#1" type="shop" color="237,199,255" fill="1" layer="-1.00" shape="1603.704356,1657.534860 1588.149389,1656.809466 1589.390656,1632.973407 1604.945666,1633.698802 1603.704356,1657.534860"/>
    <poly id="1072472646" type="building" color="255,230,230" fill="1" layer="-1.00" shape="1465.583848,1458.275609 1466.184766,1438.977738 1512.504623,1440.392455 1511.903603,1459.690327 1465.583848,1458.275609"/>
    <poly id="1072472647" type="amenity" color="237,199,199" fill="1" layer="-1.00" shape="1513.718805,1502.124717 1513.666169,1512.000077 1487.346561,1511.856963 1487.399168,1501.981604 1513.718805,1502.124717"/>
    <poly id="1072472647#1" type="building" color="255,230,230" fill="1" layer="-1.00" shape="1513.718805,1502.124717 1513.666169,1512.000077 1487.346561,1511.856963 1487.399168,1501.981604 1513.718805,1502.124717"/>
    <poly id="1236679988" type="amenity" color="237,199,199" fill="1" layer="-1.00" shape="2274.221113,1572.486272 2273.929557,1582.091002 2270.062061,1581.976322 2269.987087,1584.616053 2261.065021,1584.342930 2261.153423,1581.459309 2245.233835,1580.981355 2245.503461,1572.086437 2237.300866,1571.837511 2237.031248,1580.732429 2192.169010,1579.362501 2194.240558,1511.397562 2271.661857,1513.758660 2271.366073,1523.596350 2294.040235,1524.285899 2294.292040,1515.878926 2309.492059,1516.343882 2308.762816,1540.122663 2321.714374,1540.513477 2329.647118,1540.757575 2329.227303,1554.443682 2320.583882,1554.186664 2308.109137,1553.804519 2307.203260,1583.339450 2291.769461,1582.870243 2292.065472,1573.021459 2274.221113,1572.486272"/>
    <poly id="1236679988#1" type="building" color="255,230,230" fill="1" layer="-1.00" shape="2274.221113,1572.486272 2273.929557,1582.091002 2270.062061,1581.976322 2269.987087,1584.616053 2261.065021,1584.342930 2261.153423,1581.459309 2245.233835,1580.981355 2245.503461,1572.086437 2237.300866,1571.837511 2237.031248,1580.732429 2192.169010,1579.362501 2194.240558,1511.397562 2271.661857,1513.758660 2271.366073,1523.596350 2294.040235,1524.285899 2294.292040,1515.878926 2309.492059,1516.343882 2308.762816,1540.122663 2321.714374,1540.513477 2329.647118,1540.757575 2329.227303,1554.443682 2320.583882,1554.186664 2308.109137,1553.804519 2307.203260,1583.339450 2291.769461,1582.870243 2292.065472,1573.021459 2274.221113,1572.486272"/>
    <poly id="1236679994" type="building" color="255,230,230" fill="1" layer="-1.00" shape="2534.325903,1829.220529 2492.957616,1828.278805 2492.719894,1838.372793 2475.629293,1837.984051 2475.615968,1838.716214 2473.736048,1838.670903 2474.075615,1823.474126 2476.675203,1823.532534 2476.775165,1819.028952 2475.569726,1819.007013 2475.940588,1802.090763 2493.985020,1802.485767 2493.966847,1803.484171 2497.546987,1803.560433 2497.544968,1803.671367 2498.795389,1803.694127 2498.802860,1803.283673 2505.819610,1803.411396 2505.857059,1800.859756 2522.301852,1801.136924 2522.257422,1803.577466 2534.824805,1803.795167 2534.325903,1829.220529"/>
    <poly id="1236680122" type="amenity" color="237,199,199" fill="1" layer="-1.00" shape="2408.068130,1748.855024 2416.548829,1749.142470 2415.270942,1786.738202 2406.799275,1786.450919 2408.068130,1748.855024"/>
    <poly id="1236680123" type="building" color="255,230,230" fill="1" layer="-1.00" shape="2369.193934,1769.587411 2373.141079,1766.307893 2374.454629,1767.807690 2376.764681,1765.974305 2378.285470,1765.480404 2384.757653,1765.864454 2384.741595,1766.252558 2394.834390,1776.856265 2384.368507,1786.764203 2369.193934,1769.587411"/>
    <poly id="1236680123#1" type="shop" color="237,199,255" fill="1" layer="-1.00" shape="2369.193934,1769.587411 2373.141079,1766.307893 2374.454629,1767.807690 2376.764681,1765.974305 2378.285470,1765.480404 2384.757653,1765.864454 2384.741595,1766.252558 2394.834390,1776.856265 2384.368507,1786.764203 2369.193934,1769.587411"/>
    <poly id="1236680124" type="amenity" color="237,199,199" fill="1" layer="-1.00" shape="2360.326048,1734.181933 2364.832389,1734.297178 2372.847332,1734.465140 2372.744114,1739.645581 2372.987003,1739.649998 2376.117575,1739.706936 2376.459419,1739.713154 2376.561630,1734.588180 2384.468825,1734.743096 2389.128096,1734.861134 2388.785994,1748.226847 2384.108739,1748.108481 2376.221162,1747.865145 2376.372709,1742.996301 2376.049058,1742.979317 2372.936480,1742.922706 2372.657809,1742.906541 2372.503844,1747.908506 2364.436349,1747.661909 2359.948209,1747.535898 2360.326048,1734.181933"/>
    <poly id="1236680125" type="building" color="255,230,230" fill="1" layer="-1.00" shape="2386.585438,1835.564933 2377.403960,1847.094213 2348.562385,1822.877489 2358.155233,1811.488826 2370.101627,1821.604655 2386.585438,1835.564933"/>
    <poly id="1236680126" type="building" color="255,230,230" fill="1" layer="-1.00" shape="2374.959025,1849.912781 2397.130599,1850.482530 2408.131027,1850.760324 2407.721251,1866.854682 2374.540314,1866.006974 2374.959025,1849.912781"/>
    <poly id="1236680127" type="building" color="255,230,230" fill="1" layer="-1.00" shape="2338.330979,1853.052937 2338.329229,1860.077332 2333.441702,1860.143815 2333.243498,1868.074595 2297.184132,1867.163744 2297.567163,1852.034348 2338.330979,1853.052937"/>
    <poly id="1236680128" type="building" color="255,230,230" fill="1" layer="-1.00" shape="2286.453013,1849.102433 2286.323426,1867.121666 2259.294718,1866.929990 2259.424249,1848.910759 2286.453013,1849.102433"/>
    <poly id="1236680129" type="building" color="255,230,230" fill="1" layer="-1.00" shape="2241.636849,1866.564684 2215.578755,1865.946901 2215.991955,1848.654136 2242.050100,1849.271918 2241.636849,1866.564684"/>
    <poly id="1236680130" type="building" color="255,230,230" fill="1" layer="-1.00" shape="2188.114244,1848.136540 2213.934542,1848.472491 2213.714819,1866.012907 2187.894573,1865.676954 2188.114244,1848.136540"/>
    <poly id="1236680132" type="building" color="255,230,230" fill="1" layer="-1.00" shape="2188.457200,1788.640496 2206.693577,1788.871937 2206.622310,1786.850982 2212.720683,1787.006172 2212.824717,1793.166915 2235.863653,1793.552260 2236.346232,1776.405017 2243.920941,1776.531572 2252.408501,1770.993042 2247.961911,1764.620214 2252.219757,1762.067597 2238.108672,1741.814305 2224.730035,1750.581986 2223.489335,1751.014420 2221.171468,1747.831844 2216.647832,1751.145341 2214.137495,1747.659650 2213.267059,1746.534132 2212.248254,1745.650053 2210.747023,1745.067925 2209.876639,1744.930044 2209.186174,1744.795432 2208.267384,1744.845321 2207.402167,1744.918377 2206.551313,1745.191441 2205.653868,1745.552435 2203.022416,1747.246860 2203.986568,1748.662602 2200.771318,1750.790302 2194.499889,1741.832034 2190.525559,1744.134597 2187.159067,1745.671412 2186.214717,1744.156158 2185.241219,1743.750077 2183.962998,1743.771245 2181.553093,1745.158984 2179.353850,1746.839073 2178.563076,1747.767956 2178.584881,1749.044510 2178.924032,1749.694299 2176.080644,1751.662307 2176.860319,1752.830561 2171.753383,1756.055805 2188.617600,1781.297177 2188.457200,1788.640496"/>
    <poly id="1236680132#1" type="shop" color="237,199,255" fill="1" layer="-1.00" shape="2188.457200,1788.640496 2206.693577,1788.871937 2206.622310,1786.850982 2212.720683,1787.006172 2212.824717,1793.166915 2235.863653,1793.552260 2236.346232,1776.405017 2243.920941,1776.531572 2252.408501,1770.993042 2247.961911,1764.620214 2252.219757,1762.067597 2238.108672,1741.814305 2224.730035,1750.581986 2223.489335,1751.014420 2221.171468,1747.831844 2216.647832,1751.145341 2214.137495,1747.659650 2213.267059,1746.534132 2212.248254,1745.650053 2210.747023,1745.067925 2209.876639,1744.930044 2209.186174,1744.795432 2208.267384,1744.845321 2207.402167,1744.918377 2206.551313,1745.191441 2205.653868,1745.552435 2203.022416,1747.246860 2203.986568,1748.662602 2200.771318,1750.790302 2194.499889,1741.832034 2190.525559,1744.134597 2187.159067,1745.671412 2186.214717,1744.156158 2185.241219,1743.750077 2183.962998,1743.771245 2181.553093,1745.158984 2179.353850,1746.839073 2178.563076,1747.767956 2178.584881,1749.044510 2178.924032,1749.694299 2176.080644,1751.662307 2176.860319,1752.830561 2171.753383,1756.055805 2188.617600,1781.297177 2188.457200,1788.640496"/>
    <poly id="1236680133" type="amenity" color="237,199,199" fill="1" layer="-1.00" shape="2293.587881,1730.360683 2307.572878,1730.814665 2307.006578,1748.104650 2293.021609,1747.650667 2293.587881,1730.360683"/>
    <poly id="1236680133#1" type="building" color="255,230,230" fill="1" layer="-1.00" shape="2293.587881,1730.360683 2307.572878,1730.814665 2307.006578,1748.104650 2293.021609,1747.650667 2293.587881,1730.360683"/>
    <poly id="1236680134" type="amenity" color="237,199,199" fill="1" layer="-1.00" shape="2428.268419,1772.714967 2428.956292,1742.820946 2433.723080,1738.513245 2446.935834,1738.875721 2446.480338,1748.577348 2440.171395,1748.617911 2439.611192,1772.976830 2428.268419,1772.714967"/>
    <poly id="1236680134#1" type="building" color="255,230,230" fill="1" layer="-1.00" shape="2428.268419,1772.714967 2428.956292,1742.820946 2433.723080,1738.513245 2446.935834,1738.875721 2446.480338,1748.577348 2440.171395,1748.617911 2439.611192,1772.976830 2428.268419,1772.714967"/>
    <poly id="1236680135" type="building" color="255,230,230" fill="1" layer="-1.00" shape="2306.328739,1654.710772 2306.519483,1645.703448 2306.965829,1624.616100 2284.586453,1623.565660 2275.555869,1623.323839 2275.414107,1628.647838 2275.256618,1634.837120 2274.453877,1665.139622 2283.466425,1665.381116 2295.909261,1665.529617 2296.145894,1654.492370 2306.328739,1654.710772"/>
    <poly id="1236680135#1" type="shop" color="237,199,255" fill="1" layer="-1.00" shape="2306.328739,1654.710772 2306.519483,1645.703448 2306.965829,1624.616100 2284.586453,1623.565660 2275.555869,1623.323839 2275.414107,1628.647838 2275.256618,1634.837120 2274.453877,1665.139622 2283.466425,1665.381116 2295.909261,1665.529617 2296.145894,1654.492370 2306.328739,1654.710772"/>
    <poly id="1236680136" type="amenity" color="237,199,199" fill="1" layer="-1.00" shape="2221.121313,1671.350202 2217.624505,1671.142405 2214.721228,1670.956491 2211.251609,1670.738094 2213.036892,1641.818382 2211.364243,1641.754702 2212.276677,1630.663154 2212.496248,1627.493393 2211.946651,1625.053159 2211.092930,1623.006892 2209.719986,1621.306297 2208.942848,1620.493192 2208.615639,1620.176530 2208.481981,1619.608154 2208.573023,1619.054956 2208.875937,1618.727549 2209.564875,1618.451543 2215.946804,1618.856015 2216.526708,1619.132880 2216.656535,1619.912031 2216.519116,1624.503704 2218.029236,1624.597723 2217.953895,1625.772639 2217.617883,1630.893361 2217.431345,1633.730812 2223.491020,1634.040659 2223.627392,1632.478456 2226.656424,1632.677754 2224.267278,1671.551625 2221.121313,1671.350202"/>
    <poly id="1236680136#1" type="building" color="255,230,230" fill="1" layer="-1.00" shape="2221.121313,1671.350202 2217.624505,1671.142405 2214.721228,1670.956491 2211.251609,1670.738094 2213.036892,1641.818382 2211.364243,1641.754702 2212.276677,1630.663154 2212.496248,1627.493393 2211.946651,1625.053159 2211.092930,1623.006892 2209.719986,1621.306297 2208.942848,1620.493192 2208.615639,1620.176530 2208.481981,1619.608154 2208.573023,1619.054956 2208.875937,1618.727549 2209.564875,1618.451543 2215.946804,1618.856015 2216.526708,1619.132880 2216.656535,1619.912031 2216.519116,1624.503704 2218.029236,1624.597723 2217.953895,1625.772639 2217.617883,1630.893361 2217.431345,1633.730812 2223.491020,1634.040659 2223.627392,1632.478456 2226.656424,1632.677754 2224.267278,1671.551625 2221.121313,1671.350202"/>
    <poly id="1236680137" type="amenity" color="237,199,199" fill="1" layer="-1.00" shape="2180.090525,1672.102879 2169.733026,1671.592927 2169.902031,1668.233598 2160.983277,1667.783081 2162.490666,1637.804104 2181.766991,1638.764574 2180.090525,1672.102879"/>
    <poly id="1236680137#1" type="building" color="255,230,230" fill="1" layer="-1.00" shape="2180.090525,1672.102879 2169.733026,1671.592927 2169.902031,1668.233598 2160.983277,1667.783081 2162.490666,1637.804104 2181.766991,1638.764574 2180.090525,1672.102879"/>
    <poly id="1236680138" type="building" color="255,230,230" fill="1" layer="-1.00" shape="2244.362493,1641.311169 2243.607761,1665.511175 2235.522202,1665.264372 2236.277112,1641.053274 2244.362493,1641.311169"/>
    <poly id="1236680138#1" type="shop" color="237,199,255" fill="1" layer="-1.00" shape="2244.362493,1641.311169 2243.607761,1665.511175 2235.522202,1665.264372 2236.277112,1641.053274 2244.362493,1641.311169"/>
    <poly id="1236680139" type="building" color="255,230,230" fill="1" layer="-1.00" shape="2037.274852,1514.573263 2029.011656,1655.022490 2005.297598,1653.637825 2013.542420,1513.188262 2037.274852,1514.573263"/>
    <poly id="1236680140" type="building" color="255,230,230" fill="1" layer="-1.00" shape="1858.035491,1620.084046 1857.064929,1620.010967 1851.852075,1619.650143 1847.349101,1619.346578 1851.890910,1547.509228 1881.690975,1549.259030 1881.778593,1546.908053 1887.237804,1547.084710 1887.146764,1549.624274 1898.917194,1550.137308 1897.769845,1566.762013 1890.902289,1566.337873 1890.586272,1571.359087 1897.453623,1571.794320 1895.351269,1604.858570 1899.107191,1608.644171 1898.696382,1613.929994 1889.734403,1613.379101 1888.779738,1626.822460 1882.739458,1626.435518 1882.650284,1628.375878 1873.453097,1636.332139 1858.035491,1620.084046"/>
    <poly id="1236680141" type="amenity" color="237,199,199" fill="1" layer="-1.00" shape="1794.373485,1640.136591 1794.069595,1658.396748 1772.838732,1658.034248 1772.745422,1663.680930 1766.951828,1663.587059 1766.767427,1674.758396 1753.012232,1674.531388 1753.593718,1639.453214 1794.373485,1640.136591"/>
    <poly id="1236680141#1" type="building" color="255,230,230" fill="1" layer="-1.00" shape="1794.373485,1640.136591 1794.069595,1658.396748 1772.838732,1658.034248 1772.745422,1663.680930 1766.951828,1663.587059 1766.767427,1674.758396 1753.012232,1674.531388 1753.593718,1639.453214 1794.373485,1640.136591"/>
    <poly id="1236680143" type="building" color="255,230,230" fill="1" layer="-1.00" shape="1642.315693,1755.620971 1642.698114,1736.485582 1643.156904,1736.493888 1643.238400,1732.489349 1656.381175,1732.738392 1661.112806,1732.835158 1661.110395,1732.968279 1661.038891,1736.917514 1666.553160,1737.028454 1666.173255,1756.518993 1661.603562,1756.425156 1661.436893,1765.133278 1644.866951,1764.811081 1645.050432,1755.670481 1642.315693,1755.620971"/>
    <poly id="1236680143#1" type="shop" color="237,199,255" fill="1" layer="-1.00" shape="1642.315693,1755.620971 1642.698114,1736.485582 1643.156904,1736.493888 1643.238400,1732.489349 1656.381175,1732.738392 1661.112806,1732.835158 1661.110395,1732.968279 1661.038891,1736.917514 1666.553160,1737.028454 1666.173255,1756.518993 1661.603562,1756.425156 1661.436893,1765.133278 1644.866951,1764.811081 1645.050432,1755.670481 1642.315693,1755.620971"/>
    <poly id="1236680144" type="building" color="255,230,230" fill="1" layer="-1.00" shape="1580.809457,1767.524449 1617.132244,1768.315021 1616.730157,1786.551197 1580.407447,1785.760623 1580.809457,1767.524449"/>
    <poly id="1236680144#1" type="shop" color="237,199,255" fill="1" layer="-1.00" shape="1580.809457,1767.524449 1617.132244,1768.315021 1616.730157,1786.551197 1580.407447,1785.760623 1580.809457,1767.524449"/>
    <poly id="1236680145" type="amenity" color="237,199,199" fill="1" layer="-1.00" shape="1651.065902,1790.723821 1673.014089,1791.210000 1672.436291,1817.155410 1650.479174,1816.669067 1651.065902,1790.723821"/>
    <poly id="1236680145#1" type="building" color="255,230,230" fill="1" layer="-1.00" shape="1651.065902,1790.723821 1673.014089,1791.210000 1672.436291,1817.155410 1650.479174,1816.669067 1651.065902,1790.723821"/>
    <poly id="1236680146" type="amenity" color="237,199,199" fill="1" layer="-1.00" shape="1608.537952,1816.564534 1576.895385,1815.736616 1576.961673,1811.576444 1577.174749,1798.807666 1608.748422,1799.467880 1608.537952,1816.564534"/>
    <poly id="1236680146#1" type="building" color="255,230,230" fill="1" layer="-1.00" shape="1608.537952,1816.564534 1576.895385,1815.736616 1576.961673,1811.576444 1577.174749,1798.807666 1608.748422,1799.467880 1608.537952,1816.564534"/>
    <poly id="1236680147" type="building" color="255,230,230" fill="1" layer="-1.00" shape="1618.174681,1828.546168 1629.084925,1841.261077 1636.643113,1834.839582 1646.733589,1846.607526 1629.012471,1861.667136 1644.848837,1880.130715 1632.492215,1890.648898 1627.442501,1884.764850 1614.674674,1895.630716 1611.273014,1891.663000 1607.562523,1894.813964 1590.553973,1874.986504 1597.417786,1869.140551 1593.901572,1865.037605 1598.425741,1861.180058 1593.851919,1855.848398 1598.933267,1851.534861 1594.421205,1846.270901 1601.019749,1840.664283 1602.244660,1842.095772 1618.174681,1828.546168"/>
    <poly id="1236680148" type="parking" color="184,184,179" fill="1" layer="-1.00" shape="1672.325273,1859.066754 1670.829089,1891.997742 1660.372298,1891.519874 1661.877437,1858.589049 1672.325273,1859.066754"/>
    <poly id="1236680149" type="building" color="255,230,230" fill="1" layer="-1.00" shape="1489.295709,1617.546551 1491.711105,1579.527594 1504.671742,1580.405631 1502.772873,1618.223087 1489.295709,1617.546551"/>
    <poly id="1236680150" type="building" color="255,230,230" fill="1" layer="-1.00" shape="1645.267955,1511.518430 1639.286649,1605.801142 1621.754475,1604.928930 1622.359161,1580.471015 1624.033427,1580.445836 1624.411740,1574.460310 1625.913476,1574.520784 1626.225926,1569.688153 1631.681705,1570.053237 1631.738132,1569.421730 1635.243978,1569.629453 1635.481413,1565.461284 1628.162244,1565.129049 1628.331602,1559.750075 1635.757523,1560.150824 1636.058652,1556.938148 1627.052835,1556.320153 1627.191670,1550.141644 1625.851457,1550.106287 1626.095633,1544.073946 1624.683852,1544.015101 1625.484293,1531.612060 1626.950253,1531.660789 1627.365957,1525.598261 1628.848907,1525.702783 1629.145253,1519.771259 1620.681280,1510.096841 1614.703488,1509.733415 1614.546505,1512.937602 1593.284414,1511.298839 1594.314948,1493.140628 1631.008803,1495.369425 1645.267955,1511.518430"/>
    <poly id="1236680151" type="building" color="255,230,230" fill="1" layer="-1.00" shape="1635.802092,1673.019113 1631.836491,1672.858550 1631.982518,1669.265769 1621.380721,1668.829725 1622.381839,1644.345693 1636.958277,1644.942464 1636.120778,1665.356862 1635.802092,1673.019113"/>
    <poly id="1236680152" type="amenity" color="237,199,199" fill="1" layer="-1.00" shape="1603.741451,1602.283629 1602.964777,1615.364018 1576.733934,1613.812908 1577.510368,1600.743611 1603.741451,1602.283629"/>
    <poly id="1236680152#1" type="building" color="255,230,230" fill="1" layer="-1.00" shape="1603.741451,1602.283629 1602.964777,1615.364018 1576.733934,1613.812908 1577.510368,1600.743611 1603.741451,1602.283629"/>
    <poly id="1236680153" type="building" color="255,230,230" fill="1" layer="-1.00" shape="1488.148016,1623.784491 1505.142197,1624.546833 1504.562980,1637.664085 1501.353996,1640.946235 1487.408075,1640.316706 1488.148016,1623.784491"/>
    <poly id="1236680153#1" type="shop" color="237,199,255" fill="1" layer="-1.00" shape="1488.148016,1623.784491 1505.142197,1624.546833 1504.562980,1637.664085 1501.353996,1640.946235 1487.408075,1640.316706 1488.148016,1623.784491"/>
    <poly id="1236680154" type="amenity" color="237,199,199" fill="1" layer="-1.00" shape="1495.098152,1665.912264 1496.110227,1648.763539 1506.196267,1649.356555 1505.184172,1666.505279 1495.098152,1665.912264"/>
    <poly id="1236680155" type="building" color="255,230,230" fill="1" layer="-1.00" shape="1471.544795,1588.961528 1468.299239,1588.791868 1467.775043,1598.869542 1450.297635,1597.954278 1454.176998,1523.752357 1471.996205,1524.684898 1471.374531,1536.669489 1474.260465,1536.821549 1471.544795,1588.961528"/>
    <poly id="1236680156" type="building" color="255,230,230" fill="1" layer="-1.00" shape="1323.686733,1514.036643 1318.829315,1597.109566 1319.557391,1597.156010 1318.684502,1612.098955 1314.585137,1611.869539 1313.802884,1625.282739 1311.501518,1625.152388 1311.107588,1632.014295 1290.530645,1630.821415 1297.446182,1512.508407 1323.686733,1514.036643"/>
    <poly id="1236680157" type="building" color="255,230,230" fill="1" layer="-1.00" shape="1315.790020,1655.757624 1289.608238,1654.985045 1290.048269,1640.089766 1316.230097,1640.862345 1315.790020,1655.757624"/>
    <poly id="1236680158" type="building" color="255,230,230" fill="1" layer="-1.00" shape="1364.210106,1503.039337 1376.503369,1503.505626 1376.605060,1500.866384 1386.488171,1501.244743 1385.068845,1538.449431 1362.883565,1537.604621 1364.210106,1503.039337"/>
    <poly id="1236680159" type="building" color="255,230,230" fill="1" layer="-1.00" shape="1360.041708,1571.865100 1361.967498,1542.981195 1384.473989,1544.475433 1382.548124,1573.359336 1360.041708,1571.865100"/>
    <poly id="1236680160" type="building" color="255,230,230" fill="1" layer="-1.00" shape="1390.519631,1599.337163 1353.159073,1597.674350 1354.134302,1576.075073 1391.485756,1577.748818 1390.519631,1599.337163"/>
    <poly id="1236680161" type="building" color="255,230,230" fill="1" layer="-1.00" shape="1373.796124,1640.360040 1356.210447,1639.465198 1358.060019,1603.344687 1375.645769,1604.239531 1373.796124,1640.360040"/>
    <poly id="1236680162" type="building" color="255,230,230" fill="1" layer="-1.00" shape="1416.262147,1618.445394 1415.058397,1641.227918 1381.821176,1639.473058 1383.024839,1616.690533 1416.262147,1618.445394"/>
    <poly id="1236680163" type="building" color="255,230,230" fill="1" layer="-1.00" shape="1418.877829,1578.787702 1416.992568,1615.873003 1395.450811,1614.784503 1397.335981,1577.699200 1418.877829,1578.787702"/>
    <poly id="1236680164" type="building" color="255,230,230" fill="1" layer="-1.00" shape="1425.133816,1562.266430 1424.440954,1575.703439 1388.550055,1573.878399 1389.414172,1556.937843 1414.714013,1558.227418 1414.533697,1561.730802 1425.133816,1562.266430"/>
    <poly id="1236680165" type="building" color="255,230,230" fill="1" layer="-1.00" shape="1404.380326,1525.526493 1420.419910,1526.337987 1419.007788,1553.677598 1402.977250,1552.866268 1404.380326,1525.526493"/>
    <poly id="1236680166" type="building" color="255,230,230" fill="1" layer="-1.00" shape="1393.607590,1522.091463 1395.036530,1500.289546 1424.042101,1502.189870 1422.613290,1523.980691 1393.607590,1522.091463"/>
    <poly id="1236680167" type="building" color="255,230,230" fill="1" layer="-1.00" shape="1468.496139,1383.812081 1487.863787,1384.728251 1486.311158,1417.835744 1466.934588,1416.919412 1468.496139,1383.812081"/>
    <poly id="1236680168" type="building" color="255,230,230" fill="1" layer="-1.00" shape="1531.799224,1349.324550 1530.777352,1368.503838 1497.539291,1366.737479 1498.561090,1347.558190 1531.799224,1349.324550"/>
    <poly id="1236680169" type="building" color="255,230,230" fill="1" layer="-1.00" shape="1488.511892,1378.747605 1469.487091,1377.782148 1471.152191,1344.920825 1490.186060,1345.886445 1488.511892,1378.747605"/>
    <poly id="1243927693" type="building" color="255,230,230" fill="1" layer="-1.00" shape="2389.409733,2316.939657 2389.206472,2257.877450 2410.912481,2258.261266 2412.081878,2258.282544 2414.609978,2258.306349 2414.607126,2257.474018 2414.637527,2252.836003 2424.507060,2252.926812 2424.544037,2256.334280 2424.877068,2256.329243 2424.882253,2257.527819 2454.751592,2257.316790 2454.775882,2263.398418 2454.993382,2291.000754 2454.979743,2291.255738 2447.865649,2291.059681 2447.600446,2318.486776 2443.514763,2318.512293 2443.471558,2320.886277 2433.293839,2320.922999 2433.250519,2318.358791 2430.802990,2318.358639 2428.616526,2318.352143 2428.691685,2325.100520 2428.702029,2326.510034 2407.364302,2326.665524 2407.367014,2326.021944 2407.396658,2323.403579 2407.421055,2321.073642 2405.441686,2321.059822 2389.254909,2320.998361 2389.073418,2318.609193 2389.070073,2318.298415 2389.409733,2316.939657"/>
    <poly id="1243927694" type="building" color="255,230,230" fill="1" layer="-1.00" shape="2381.098613,2227.723528 2381.116125,2235.169967 2362.776873,2235.202572 2362.768341,2227.756297 2381.098613,2227.723528"/>
    <poly id="1243927695" type="building" color="255,230,230" fill="1" layer="-1.00" shape="2384.860631,2211.856601 2403.675480,2211.899276 2403.661546,2219.589279 2384.837718,2219.546440 2384.860631,2211.856601"/>
    <poly id="1243927696" type="building" color="255,230,230" fill="1" layer="-1.00" shape="2433.421009,2246.686019 2388.278705,2246.552677 2388.305719,2244.078526 2388.487494,2232.108116 2433.219517,2232.045339 2433.421009,2246.686019"/>
    <poly id="1243927697" type="building" color="255,230,230" fill="1" layer="-1.00" shape="2454.689815,2215.224536 2454.517408,2243.485597 2439.048902,2243.503706 2439.070985,2232.895325 2439.096535,2215.173795 2454.689815,2215.224536"/>
    <poly id="1243927698" type="building" color="255,230,230" fill="1" layer="-1.00" shape="2453.735885,2246.378802 2453.877631,2252.928644 2442.874277,2252.839362 2442.852586,2254.525720 2437.559475,2254.640238 2437.723915,2246.098499 2453.735885,2246.378802"/>
    <poly id="1243927710" type="amenity" color="237,199,199" fill="1" layer="-1.00" shape="1442.069859,2272.424383 1441.956376,2293.129312 1426.789512,2292.899432 1426.893326,2288.651163 1425.751124,2288.619412 1425.899808,2282.884958 1425.360089,2282.875199 1425.628031,2272.038287 1438.939690,2272.356680 1442.069859,2272.424383"/>
    <poly id="1243927710#1" type="building" color="255,230,230" fill="1" layer="-1.00" shape="1442.069859,2272.424383 1441.956376,2293.129312 1426.789512,2292.899432 1426.893326,2288.651163 1425.751124,2288.619412 1425.899808,2282.884958 1425.360089,2282.875199 1425.628031,2272.038287 1438.939690,2272.356680 1442.069859,2272.424383"/>
    <poly id="1243927711" type="amenity" color="237,199,199" fill="1" layer="-1.00" shape="1423.852183,2181.643413 1445.420792,2181.667232 1445.000727,2198.427183 1438.488065,2198.309411 1438.125184,2211.907755 1425.972432,2211.688001 1426.206319,2198.753144 1423.552679,2198.705162 1423.852183,2181.643413"/>
    <poly id="1243927711#1" type="building" color="255,230,230" fill="1" layer="-1.00" shape="1423.852183,2181.643413 1445.420792,2181.667232 1445.000727,2198.427183 1438.488065,2198.309411 1438.125184,2211.907755 1425.972432,2211.688001 1426.206319,2198.753144 1423.552679,2198.705162 1423.852183,2181.643413"/>
    <poly id="1243927712" type="building" color="255,230,230" fill="1" layer="-1.00" shape="1698.718509,1518.190055 1699.521503,1500.682446 1728.195857,1501.989643 1727.392604,1519.508345 1698.718509,1518.190055"/>
    <poly id="1243927713" type="building" color="255,230,230" fill="1" layer="-1.00" shape="1695.911117,1502.270518 1695.042283,1522.917383 1673.353144,1522.003092 1674.221927,1501.356226 1695.911117,1502.270518"/>
    <poly id="1243927714" type="building" color="255,230,230" fill="1" layer="-1.00" shape="1665.381187,1545.794962 1666.467148,1524.086717 1695.615805,1525.535562 1694.529772,1547.243806 1665.381187,1545.794962"/>
    <poly id="1243927715" type="building" color="255,230,230" fill="1" layer="-1.00" shape="1671.602654,1578.921155 1673.216825,1549.909555 1690.900033,1550.895570 1689.286005,1579.896074 1671.602654,1578.921155"/>
    <poly id="1243927716" type="building" color="255,230,230" fill="1" layer="-1.00" shape="1667.759996,1601.789060 1668.677873,1584.394500 1697.582230,1585.905521 1696.664297,1603.300081 1667.759996,1601.789060"/>
    <poly id="1243927717" type="building" color="255,230,230" fill="1" layer="-1.00" shape="1691.470121,1606.379760 1690.111791,1635.174054 1668.559680,1634.162368 1669.908741,1605.379003 1691.470121,1606.379760"/>
    <poly id="1243927718" type="building" color="255,230,230" fill="1" layer="-1.00" shape="1664.319445,1659.109312 1665.432397,1637.401552 1685.904180,1638.438056 1684.799972,1660.157071 1664.319445,1659.109312"/>
    <poly id="1243927719" type="building" color="255,230,230" fill="1" layer="-1.00" shape="1705.992867,1559.757961 1707.660678,1522.324717 1725.734391,1523.118125 1725.490393,1528.640009 1728.143034,1528.754636 1727.614987,1540.518983 1724.485959,1540.373533 1723.589912,1560.531640 1705.992867,1559.757961"/>