<?xml version="1.0" encoding="UTF-8"?>

<!-- generated on 2025-11-23 01:27:35 by Eclipse SUMO netedit Version 1.24.0
<neteditConfiguration xmlns:xsi="http://www.w3.org/2001/XMLSchema-instance" xsi:noNamespaceSchemaLocation="http://sumo.dlr.de/xsd/neteditConfiguration.xsd">

    <input>
        <sumo-net-file value="rainbow.net.xml"/>
    </input>

    <output>
        <output-file value="rainbow.net.xml"/>
    </output>

    <processing>
        <geometry.min-radius.fix.railways value="false"/>
        <geometry.avoid-overlap value="false"/>
        <geometry.max-grade.fix value="false"/>
        <offset.disable-normalization value="true"/>
        <lefthand value="0"/>
    </processing>

    <junctions>
        <no-turnarounds value="true"/>
        <junctions.corner-detail value="5"/>
        <junctions.limit-turn-speed value="5.50"/>
        <rectangular-lane-cut value="0"/>
    </junctions>

    <pedestrian>
        <walkingareas value="0"/>
    </pedestrian>

</neteditConfiguration>
-->

<net version="1.20" junctionCornerDetail="5" limitTurnSpeed="5.50" avoidOverlap="0" xmlns:xsi="http://www.w3.org/2001/XMLSchema-instance" xsi:noNamespaceSchemaLocation="http://sumo.dlr.de/xsd/net_file.xsd">

    <location netOffset="-656438.65,-4001336.51" convBoundary="0.00,0.00,2731.90,2489.40" origBoundary="-115.260836,36.144008,-115.209098,36.166507" projParameter="+proj=utm +zone=11 +ellps=WGS84 +datum=WGS84 +units=m +no_defs"/>

    <type id="highway.footway" priority="1" numLanes="1" speed="2.78" allow="pedestrian" oneway="1" width="2.00"/>
    <type id="highway.living_street" priority="2" numLanes="1" speed="2.78" disallow="tram rail_urban rail rail_electric rail_fast ship container cable_car subway aircraft wheelchair scooter drone" oneway="0"/>
    <type id="highway.primary" priority="12" numLanes="2" speed="27.78" disallow="tram rail_urban rail rail_electric rail_fast ship container cable_car subway aircraft wheelchair scooter drone" oneway="0"/>
    <type id="highway.residential" priority="3" numLanes="1" speed="13.89" disallow="tram rail_urban rail rail_electric rail_fast ship container cable_car subway aircraft wheelchair scooter drone" oneway="0"/>
    <type id="highway.secondary" priority="11" numLanes="1" speed="27.78" disallow="tram rail_urban rail rail_electric rail_fast ship container cable_car subway aircraft wheelchair scooter drone" oneway="0"/>
    <type id="highway.secondary_link" priority="6" numLanes="1" speed="22.22" disallow="tram rail_urban rail rail_electric rail_fast ship container cable_car subway aircraft wheelchair scooter drone" oneway="0"/>
    <type id="highway.tertiary" priority="10" numLanes="1" speed="22.22" disallow="tram rail_urban rail rail_electric rail_fast ship container cable_car subway aircraft wheelchair scooter drone" oneway="0"/>
    <type id="highway.unclassified" priority="4" numLanes="1" speed="13.89" disallow="tram rail_urban rail rail_electric rail_fast ship container cable_car subway aircraft wheelchair scooter drone" oneway="0"/>

    <edge id=":10055232560_0" function="internal">
        <lane id=":10055232560_0_0" index="0" disallow="tram rail_urban rail rail_electric rail_fast ship container cable_car subway aircraft wheelchair scooter drone" speed="15.65" length="0.33" shape="2365.72,1456.76 2365.70,1457.11"/>
        <lane id=":10055232560_0_1" index="1" disallow="tram rail_urban rail rail_electric rail_fast ship container cable_car subway aircraft wheelchair scooter drone" speed="15.65" length="0.33" shape="2362.53,1456.57 2362.51,1456.89"/>
        <lane id=":10055232560_0_2" index="2" disallow="tram rail_urban rail rail_electric rail_fast ship container cable_car subway aircraft wheelchair scooter drone" speed="15.65" length="0.33" shape="2359.34,1456.38 2359.32,1456.67"/>
    </edge>
    <edge id=":10055232560_3" function="internal">
        <lane id=":10055232560_3_0" index="0" disallow="tram rail_urban rail rail_electric rail_fast ship container cable_car subway aircraft wheelchair scooter drone" speed="15.65" length="0.25" shape="2352.93,1456.23 2352.95,1455.99"/>
        <lane id=":10055232560_3_1" index="1" disallow="tram rail_urban rail rail_electric rail_fast ship container cable_car subway aircraft wheelchair scooter drone" speed="15.65" length="0.25" shape="2356.12,1456.45 2356.14,1456.18"/>
    </edge>
    <edge id=":11385699954_0" function="internal">
        <lane id=":11385699954_0_0" index="0" disallow="tram rail_urban rail rail_electric rail_fast ship container cable_car subway aircraft wheelchair scooter drone" speed="2.24" length="4.67" shape="1938.47,1744.94 1939.31,1743.77 1940.12,1743.39 1940.91,1743.81 1941.67,1745.04"/>
    </edge>
    <edge id=":11385699955_0" function="internal">
        <lane id=":11385699955_0_0" index="0" disallow="tram rail_urban rail rail_electric rail_fast ship container cable_car subway aircraft wheelchair scooter drone" speed="2.24" length="3.30" shape="2132.01,1769.19 2135.31,1769.26"/>
    </edge>
    <edge id=":11385699955_1" function="internal">
        <lane id=":11385699955_1_0" index="0" disallow="tram rail_urban rail rail_electric rail_fast ship container cable_car subway aircraft wheelchair scooter drone" speed="2.24" length="4.67" shape="2132.01,1769.19 2133.44,1769.37 2134.16,1769.91 2134.16,1770.80 2133.44,1772.05"/>
    </edge>
    <edge id=":12533583729_0" function="internal">
        <lane id=":12533583729_0_0" index="0" disallow="tram rail_urban rail rail_electric rail_fast ship container cable_car subway aircraft wheelchair scooter drone" speed="11.18" length="1.22" width="6.06" shape="2440.92,1870.56 2440.67,1870.82 2440.49,1870.99 2440.31,1871.16 2440.03,1871.38"/>
    </edge>
    <edge id=":12533583729_1" function="internal">
        <lane id=":12533583729_1_0" index="0" disallow="tram rail_urban rail rail_electric rail_fast ship container cable_car subway aircraft wheelchair scooter drone" speed="11.18" length="0.41" width="6.06" shape="2436.22,1866.67 2436.32,1866.59 2436.38,1866.54 2436.44,1866.48 2436.52,1866.39"/>
    </edge>
    <edge id=":12552866744_0" function="internal">
        <lane id=":12552866744_0_0" index="0" disallow="tram rail_urban rail rail_electric rail_fast ship container cable_car subway aircraft wheelchair scooter drone" speed="2.24" length="1.54" shape="2141.45,1765.87 2140.07,1766.55"/>
    </edge>
    <edge id=":12553356663_0" function="internal">
        <lane id=":12553356663_0_0" index="0" disallow="tram rail_urban rail rail_electric rail_fast ship container cable_car subway aircraft wheelchair scooter drone" speed="20.12" length="0.30" shape="2435.21,1721.46 2434.90,1721.46"/>
        <lane id=":12553356663_0_1" index="1" disallow="tram rail_urban rail rail_electric rail_fast ship container cable_car subway aircraft wheelchair scooter drone" speed="20.12" length="0.30" shape="2435.28,1718.26 2434.98,1718.26"/>
        <lane id=":12553356663_0_2" index="2" disallow="tram rail_urban rail rail_electric rail_fast ship container cable_car subway aircraft wheelchair scooter drone" speed="20.12" length="0.30" shape="2435.35,1715.06 2435.06,1715.06"/>
    </edge>
    <edge id=":12553356675_0" function="internal">
        <lane id=":12553356675_0_0" index="0" disallow="tram rail_urban rail rail_electric rail_fast ship container cable_car subway aircraft wheelchair scooter drone" speed="20.12" length="0.30" shape="2359.71,1698.46 2360.00,1698.46"/>
        <lane id=":12553356675_0_1" index="1" disallow="tram rail_urban rail rail_electric rail_fast ship container cable_car subway aircraft wheelchair scooter drone" speed="20.12" length="0.30" shape="2359.62,1701.66 2359.92,1701.66"/>
        <lane id=":12553356675_0_2" index="2" disallow="tram rail_urban rail rail_electric rail_fast ship container cable_car subway aircraft wheelchair scooter drone" speed="20.12" length="0.30" shape="2359.53,1704.85 2359.84,1704.86"/>
    </edge>
    <edge id=":12888066401_0" function="internal">
        <lane id=":12888066401_0_0" index="0" disallow="tram rail_urban rail rail_electric rail_fast ship container cable_car subway aircraft wheelchair scooter drone" speed="11.18" length="6.60" shape="2386.18,1819.94 2384.88,1818.52 2384.26,1817.31 2383.62,1816.10 2382.30,1814.71"/>
        <lane id=":12888066401_0_1" index="1" disallow="tram rail_urban rail rail_electric rail_fast ship container cable_car subway aircraft wheelchair scooter drone" speed="11.18" length="6.60" shape="2388.25,1817.50 2386.94,1816.07 2386.31,1814.85 2385.67,1813.63 2384.33,1812.23"/>
    </edge>
    <edge id=":12888066401_2" function="internal">
        <lane id=":12888066401_2_0" index="0" disallow="tram rail_urban rail rail_electric rail_fast ship container cable_car subway aircraft wheelchair scooter drone" speed="7.06" length="4.95" shape="2390.33,1815.07 2389.47,1814.17 2388.86,1813.14 2388.49,1811.98 2388.36,1810.70"/>
    </edge>
    <edge id=":12912955452_0" function="internal">
        <lane id=":12912955452_0_0" index="0" disallow="tram rail_urban rail rail_electric rail_fast ship container cable_car subway aircraft wheelchair scooter drone" speed="20.12" length="8.21" shape="2421.96,1721.13 2419.56,1721.32 2417.94,1721.83 2416.33,1722.34 2413.93,1722.53"/>
        <lane id=":12912955452_0_1" index="1" disallow="tram rail_urban rail rail_electric rail_fast ship container cable_car subway aircraft wheelchair scooter drone" speed="20.12" length="8.21" shape="2422.04,1717.93 2419.64,1718.12 2418.02,1718.63 2416.41,1719.14 2414.00,1719.33"/>
        <lane id=":12912955452_0_2" index="2" disallow="tram rail_urban rail rail_electric rail_fast ship container cable_car subway aircraft wheelchair scooter drone" speed="20.12" length="8.21" shape="2422.12,1714.73 2419.72,1714.92 2418.10,1715.43 2416.48,1715.94 2414.08,1716.13"/>
        <lane id=":12912955452_0_3" index="3" disallow="tram rail_urban rail rail_electric rail_fast ship container cable_car subway aircraft wheelchair scooter drone" speed="20.12" length="8.21" shape="2422.12,1714.73 2419.73,1714.42 2418.14,1713.83 2416.55,1713.24 2414.16,1712.94"/>
    </edge>
    <edge id=":12925110256_0" function="internal">
        <lane id=":12925110256_0_0" index="0" disallow="tram rail_urban rail rail_electric rail_fast ship container cable_car subway aircraft wheelchair scooter drone" speed="3.65" length="4.67" shape="2391.15,946.35 2392.03,945.20 2392.85,944.85 2393.63,945.30 2394.35,946.55"/>
    </edge>
    <edge id=":12925110258_0" function="internal">
        <lane id=":12925110258_0_0" index="0" disallow="tram rail_urban rail rail_electric rail_fast ship container cable_car subway aircraft wheelchair scooter drone" speed="15.65" length="0.10" shape="2341.22,1585.39 2341.23,1585.30"/>
        <lane id=":12925110258_0_1" index="1" disallow="tram rail_urban rail rail_electric rail_fast ship container cable_car subway aircraft wheelchair scooter drone" speed="15.65" length="0.10" shape="2344.42,1585.53 2344.41,1585.62"/>
    </edge>
    <edge id=":12998568052_0" function="internal">
        <lane id=":12998568052_0_0" index="0" disallow="tram rail_urban rail rail_electric rail_fast ship container cable_car subway aircraft wheelchair scooter drone" speed="15.65" length="0.10" shape="2380.79,1239.20 2380.79,1239.20"/>
        <lane id=":12998568052_0_1" index="1" disallow="tram rail_urban rail rail_electric rail_fast ship container cable_car subway aircraft wheelchair scooter drone" speed="15.65" length="0.10" shape="2377.60,1238.98 2377.60,1238.98"/>
        <lane id=":12998568052_0_2" index="2" disallow="tram rail_urban rail rail_electric rail_fast ship container cable_car subway aircraft wheelchair scooter drone" speed="15.65" length="0.10" shape="2374.41,1238.75 2374.41,1238.75"/>
    </edge>
    <edge id=":12998568052_3" function="internal">
        <lane id=":12998568052_3_0" index="0" disallow="tram rail_urban rail rail_electric rail_fast ship container cable_car subway aircraft wheelchair scooter drone" speed="15.65" length="0.10" shape="2368.02,1238.30 2368.02,1238.30"/>
        <lane id=":12998568052_3_1" index="1" disallow="tram rail_urban rail rail_electric rail_fast ship container cable_car subway aircraft wheelchair scooter drone" speed="15.65" length="0.10" shape="2371.21,1238.53 2371.21,1238.53"/>
    </edge>
    <edge id=":13010765003_0" function="internal">
        <lane id=":13010765003_0_0" index="0" disallow="tram rail_urban rail rail_electric rail_fast ship container cable_car subway aircraft wheelchair scooter drone" speed="20.12" length="8.32" shape="1780.14,1706.84 1777.67,1707.29 1776.10,1708.36 1774.54,1709.42 1772.06,1709.86"/>
        <lane id=":13010765003_0_1" index="1" disallow="tram rail_urban rail rail_electric rail_fast ship container cable_car subway aircraft wheelchair scooter drone" speed="20.12" length="8.32" shape="1780.14,1706.84 1772.14,1706.66"/>
        <lane id=":13010765003_0_2" index="2" disallow="tram rail_urban rail rail_electric rail_fast ship container cable_car subway aircraft wheelchair scooter drone" speed="20.12" length="8.32" shape="1780.21,1703.64 1772.21,1703.46"/>
        <lane id=":13010765003_0_3" index="3" disallow="tram rail_urban rail rail_electric rail_fast ship container cable_car subway aircraft wheelchair scooter drone" speed="20.12" length="8.32" shape="1780.27,1700.44 1772.29,1700.27"/>
        <lane id=":13010765003_0_4" index="4" disallow="tram rail_urban rail rail_electric rail_fast ship container cable_car subway aircraft wheelchair scooter drone" speed="20.12" length="8.32" shape="1780.27,1700.44 1777.83,1699.89 1776.32,1698.76 1774.81,1697.62 1772.36,1697.07"/>
    </edge>
    <edge id=":13010765006_0" function="internal">
        <lane id=":13010765006_0_0" index="0" disallow="tram rail_urban rail rail_electric rail_fast ship container cable_car subway aircraft wheelchair scooter drone" speed="20.12" length="8.21" shape="1891.51,1687.16 1893.92,1686.96 1895.54,1686.45 1897.15,1685.94 1899.56,1685.75"/>
        <lane id=":13010765006_0_1" index="1" disallow="tram rail_urban rail rail_electric rail_fast ship container cable_car subway aircraft wheelchair scooter drone" speed="20.12" length="8.21" shape="1891.44,1690.36 1893.84,1690.16 1895.46,1689.65 1897.08,1689.14 1899.48,1688.95"/>
        <lane id=":13010765006_0_2" index="2" disallow="tram rail_urban rail rail_electric rail_fast ship container cable_car subway aircraft wheelchair scooter drone" speed="20.12" length="8.21" shape="1891.37,1693.56 1893.77,1693.36 1895.38,1692.85 1897.00,1692.34 1899.40,1692.15"/>
        <lane id=":13010765006_0_3" index="3" disallow="tram rail_urban rail rail_electric rail_fast ship container cable_car subway aircraft wheelchair scooter drone" speed="20.12" length="8.21" shape="1891.37,1693.56 1893.76,1693.86 1895.34,1694.45 1896.93,1695.04 1899.32,1695.35"/>
    </edge>
    <edge id=":13071327794_0" function="internal">
        <lane id=":13071327794_0_0" index="0" disallow="tram rail_urban rail rail_electric rail_fast ship container cable_car subway aircraft wheelchair scooter drone" speed="20.12" length="8.21" shape="933.66,1689.26 931.26,1689.47 929.64,1689.99 928.02,1690.50 925.62,1690.70"/>
        <lane id=":13071327794_0_1" index="1" disallow="tram rail_urban rail rail_electric rail_fast ship container cable_car subway aircraft wheelchair scooter drone" speed="20.12" length="8.21" shape="933.72,1686.06 931.32,1686.27 929.70,1686.79 928.09,1687.30 925.69,1687.50"/>
        <lane id=":13071327794_0_2" index="2" disallow="tram rail_urban rail rail_electric rail_fast ship container cable_car subway aircraft wheelchair scooter drone" speed="20.12" length="8.21" shape="933.77,1682.86 931.38,1683.07 929.77,1683.59 928.15,1684.10 925.76,1684.30"/>
        <lane id=":13071327794_0_3" index="3" disallow="tram rail_urban rail rail_electric rail_fast ship container cable_car subway aircraft wheelchair scooter drone" speed="20.12" length="8.21" shape="933.77,1682.86 931.39,1682.57 929.80,1681.99 928.21,1681.41 925.83,1681.10"/>
    </edge>
    <edge id=":13071327795_0" function="internal">
        <lane id=":13071327795_0_0" index="0" disallow="tram rail_urban rail rail_electric rail_fast ship container cable_car subway aircraft wheelchair scooter drone" speed="20.12" length="0.30" shape="876.00,1664.61 876.29,1664.61"/>
        <lane id=":13071327795_0_1" index="1" disallow="tram rail_urban rail rail_electric rail_fast ship container cable_car subway aircraft wheelchair scooter drone" speed="20.12" length="0.30" shape="875.93,1667.81 876.23,1667.81"/>
        <lane id=":13071327795_0_2" index="2" disallow="tram rail_urban rail rail_electric rail_fast ship container cable_car subway aircraft wheelchair scooter drone" speed="20.12" length="0.30" shape="875.87,1671.01 876.17,1671.01"/>
        <lane id=":13071327795_0_3" index="3" disallow="tram rail_urban rail rail_electric rail_fast ship container cable_car subway aircraft wheelchair scooter drone" speed="20.12" length="0.30" shape="875.80,1674.21 876.11,1674.21"/>
    </edge>
    <edge id=":13136674629_0" function="internal">
        <lane id=":13136674629_0_0" index="0" disallow="tram rail_urban rail rail_electric rail_fast ship container cable_car subway aircraft wheelchair scooter drone" speed="11.18" length="0.15" shape="2426.65,1848.90 2426.53,1848.80"/>
        <lane id=":13136674629_0_1" index="1" disallow="tram rail_urban rail rail_electric rail_fast ship container cable_car subway aircraft wheelchair scooter drone" speed="11.18" length="0.15" shape="2428.70,1846.45 2428.59,1846.35"/>
    </edge>
    <edge id=":13136674629_2" function="internal">
        <lane id=":13136674629_2_0" index="0" disallow="tram rail_urban rail rail_electric rail_fast ship container cable_car subway aircraft wheelchair scooter drone" speed="11.18" length="0.15" shape="2434.75,1838.99 2434.87,1839.09"/>
        <lane id=":13136674629_2_1" index="1" disallow="tram rail_urban rail rail_electric rail_fast ship container cable_car subway aircraft wheelchair scooter drone" speed="11.18" length="0.15" shape="2432.70,1841.44 2432.81,1841.54"/>
        <lane id=":13136674629_2_2" index="2" disallow="tram rail_urban rail rail_electric rail_fast ship container cable_car subway aircraft wheelchair scooter drone" speed="11.18" length="0.15" shape="2430.64,1843.90 2430.76,1843.99"/>
    </edge>
    <edge id=":13175729586_0" function="internal">
        <lane id=":13175729586_0_0" index="0" disallow="tram rail_urban rail rail_electric rail_fast ship container cable_car subway aircraft wheelchair scooter drone" speed="13.89" length="1.55" shape="1486.82,2088.33 1485.24,2088.18"/>
        <lane id=":13175729586_0_1" index="1" disallow="tram rail_urban rail rail_electric rail_fast ship container cable_car subway aircraft wheelchair scooter drone" speed="13.89" length="1.55" shape="1486.50,2091.52 1484.96,2091.36"/>
        <lane id=":13175729586_0_2" index="2" disallow="tram rail_urban rail rail_electric rail_fast ship container cable_car subway aircraft wheelchair scooter drone" speed="13.89" length="1.55" shape="1486.18,2094.70 1484.68,2094.55"/>
    </edge>
    <edge id=":13175729587_0" function="internal">
        <lane id=":13175729587_0_0" index="0" disallow="tram rail_urban rail rail_electric rail_fast ship container cable_car subway aircraft wheelchair scooter drone" speed="13.89" length="1.44" shape="1483.69,2102.14 1485.12,2102.25"/>
        <lane id=":13175729587_0_1" index="1" disallow="tram rail_urban rail rail_electric rail_fast ship container cable_car subway aircraft wheelchair scooter drone" speed="13.89" length="1.44" shape="1483.94,2098.95 1485.38,2099.07"/>
    </edge>
    <edge id=":137191386_0" function="internal">
        <lane id=":137191386_0_0" index="0" disallow="tram rail_urban rail rail_electric rail_fast ship container cable_car subway aircraft wheelchair scooter drone" speed="10.45" length="26.10" width="6.06" shape="2444.31,1847.00 2448.11,1851.74 2448.96,1857.08 2446.85,1863.05 2441.80,1869.63"/>
    </edge>
    <edge id=":137191386_1" function="internal">
        <lane id=":137191386_1_0" index="0" disallow="tram rail_urban rail rail_electric rail_fast ship container cable_car subway aircraft wheelchair scooter drone" speed="3.65" length="4.67" shape="2440.12,1851.85 2440.51,1853.24 2440.29,1854.10 2439.46,1854.45 2438.03,1854.27"/>
    </edge>
    <edge id=":137191386_2" function="internal">
        <lane id=":137191386_2_0" index="0" disallow="tram rail_urban rail rail_electric rail_fast ship container cable_car subway aircraft wheelchair scooter drone" speed="7.03" length="10.25" shape="2437.40,1865.46 2438.80,1863.34 2439.03,1861.17 2438.07,1858.95 2435.94,1856.69"/>
        <lane id=":137191386_2_1" index="1" disallow="tram rail_urban rail rail_electric rail_fast ship container cable_car subway aircraft wheelchair scooter drone" speed="7.76" length="12.92" shape="2437.40,1865.46 2439.76,1862.31 2440.65,1859.40 2440.08,1856.72 2438.03,1854.27"/>
    </edge>
    <edge id=":137191386_4" function="internal">
        <lane id=":137191386_4_0" index="0" disallow="tram rail_urban rail rail_electric rail_fast ship container cable_car subway aircraft wheelchair scooter drone" speed="5.02" length="8.85" width="6.06" shape="2437.40,1865.46 2440.06,1864.85 2441.69,1865.35 2442.26,1866.94 2441.80,1869.63"/>
    </edge>
    <edge id=":137225585_0" function="internal">
        <lane id=":137225585_0_0" index="0" disallow="tram rail_urban rail rail_electric rail_fast ship container cable_car subway aircraft wheelchair scooter drone" speed="3.65" length="4.67" shape="1767.45,1280.36 1766.28,1279.52 1765.91,1278.70 1766.34,1277.92 1767.57,1277.16"/>
    </edge>
    <edge id=":137360223_0" function="internal">
        <lane id=":137360223_0_0" index="0" disallow="tram rail_urban rail rail_electric rail_fast ship container cable_car subway aircraft wheelchair scooter drone" speed="20.12" length="0.30" shape="548.63,1677.65 548.33,1677.65"/>
        <lane id=":137360223_0_1" index="1" disallow="tram rail_urban rail rail_electric rail_fast ship container cable_car subway aircraft wheelchair scooter drone" speed="20.12" length="0.30" shape="548.70,1674.45 548.40,1674.45"/>
        <lane id=":137360223_0_2" index="2" disallow="tram rail_urban rail rail_electric rail_fast ship container cable_car subway aircraft wheelchair scooter drone" speed="20.12" length="0.30" shape="548.77,1671.25 548.47,1671.25"/>
    </edge>
    <edge id=":137360223_3" function="internal">
        <lane id=":137360223_3_0" index="0" disallow="tram rail_urban rail rail_electric rail_fast ship container cable_car subway aircraft wheelchair scooter drone" speed="3.65" length="2.34" shape="548.77,1671.25 547.58,1670.43 547.20,1669.62"/>
    </edge>
    <edge id=":137360223_9" function="internal">
        <lane id=":137360223_9_0" index="0" disallow="tram rail_urban rail rail_electric rail_fast ship container cable_car subway aircraft wheelchair scooter drone" speed="3.65" length="2.34" shape="547.20,1669.62 547.62,1668.83 548.83,1668.05"/>
    </edge>
    <edge id=":137360223_4" function="internal">
        <lane id=":137360223_4_0" index="0" disallow="tram rail_urban rail rail_electric rail_fast ship container cable_car subway aircraft wheelchair scooter drone" speed="20.12" length="0.30" shape="548.74,1658.45 549.03,1658.46"/>
        <lane id=":137360223_4_1" index="1" disallow="tram rail_urban rail rail_electric rail_fast ship container cable_car subway aircraft wheelchair scooter drone" speed="20.12" length="0.30" shape="548.67,1661.65 548.97,1661.65"/>
        <lane id=":137360223_4_2" index="2" disallow="tram rail_urban rail rail_electric rail_fast ship container cable_car subway aircraft wheelchair scooter drone" speed="20.12" length="0.30" shape="548.60,1664.85 548.90,1664.85"/>
        <lane id=":137360223_4_3" index="3" disallow="tram rail_urban rail rail_electric rail_fast ship container cable_car subway aircraft wheelchair scooter drone" speed="20.12" length="0.30" shape="548.53,1668.05 548.83,1668.05"/>
    </edge>
    <edge id=":137360223_8" function="internal">
        <lane id=":137360223_8_0" index="0" disallow="tram rail_urban rail rail_electric rail_fast ship container cable_car subway aircraft wheelchair scooter drone" speed="3.65" length="2.34" shape="548.53,1668.05 549.72,1668.87 550.10,1669.68"/>
    </edge>
    <edge id=":137360223_10" function="internal">
        <lane id=":137360223_10_0" index="0" disallow="tram rail_urban rail rail_electric rail_fast ship container cable_car subway aircraft wheelchair scooter drone" speed="3.65" length="2.34" shape="550.10,1669.68 549.68,1670.47 548.47,1671.25"/>
    </edge>
    <edge id=":137470434_0" function="internal">
        <lane id=":137470434_0_0" index="0" disallow="tram rail_urban rail rail_electric rail_fast ship container cable_car subway aircraft wheelchair scooter drone" speed="7.33" length="11.84" shape="2381.98,1301.74 2378.13,1301.82 2375.33,1302.70 2373.57,1304.40 2372.86,1306.92"/>
    </edge>
    <edge id=":137470434_1" function="internal">
        <lane id=":137470434_1_0" index="0" disallow="tram rail_urban rail rail_electric rail_fast ship container cable_car subway aircraft wheelchair scooter drone" speed="18.05" length="27.21" shape="2381.98,1301.74 2354.81,1300.26"/>
    </edge>
    <edge id=":137470434_2" function="internal">
        <lane id=":137470434_2_0" index="0" disallow="tram rail_urban rail rail_electric rail_fast ship container cable_car subway aircraft wheelchair scooter drone" speed="9.33" length="19.58" shape="2381.98,1301.74 2375.40,1300.69 2370.79,1298.70 2368.14,1295.76 2367.46,1291.88"/>
    </edge>
    <edge id=":137470434_3" function="internal">
        <lane id=":137470434_3_0" index="0" disallow="tram rail_urban rail rail_electric rail_fast ship container cable_car subway aircraft wheelchair scooter drone" speed="3.65" length="4.67" shape="2381.98,1301.74 2380.84,1300.85 2380.51,1300.03 2380.96,1299.26 2382.22,1298.55"/>
    </edge>
    <edge id=":137470434_4" function="internal">
        <lane id=":137470434_4_0" index="0" disallow="tram rail_urban rail rail_electric rail_fast ship container cable_car subway aircraft wheelchair scooter drone" speed="6.52" length="9.03" shape="2377.04,1292.55 2377.22,1295.02 2378.14,1296.84 2379.81,1298.02 2382.22,1298.55"/>
    </edge>
    <edge id=":137470434_5" function="internal">
        <lane id=":137470434_5_0" index="0" disallow="tram rail_urban rail rail_electric rail_fast ship container cable_car subway aircraft wheelchair scooter drone" speed="15.65" length="15.08" shape="2377.04,1292.55 2376.23,1296.89 2374.94,1299.73 2373.65,1302.57 2372.86,1306.92"/>
        <lane id=":137470434_5_1" index="1" disallow="tram rail_urban rail rail_electric rail_fast ship container cable_car subway aircraft wheelchair scooter drone" speed="15.65" length="15.08" shape="2373.85,1292.32 2373.04,1296.67 2371.74,1299.52 2370.45,1302.36 2369.67,1306.71"/>
    </edge>
    <edge id=":137470434_7" function="internal">
        <lane id=":137470434_7_0" index="0" disallow="tram rail_urban rail rail_electric rail_fast ship container cable_car subway aircraft wheelchair scooter drone" speed="9.48" length="3.95" shape="2370.66,1292.10 2369.44,1295.86"/>
    </edge>
    <edge id=":137470434_8" function="internal">
        <lane id=":137470434_8_0" index="0" disallow="tram rail_urban rail rail_electric rail_fast ship container cable_car subway aircraft wheelchair scooter drone" speed="3.65" length="1.44" shape="2370.66,1292.10 2369.77,1293.24"/>
    </edge>
    <edge id=":137470434_18" function="internal">
        <lane id=":137470434_18_0" index="0" disallow="tram rail_urban rail rail_electric rail_fast ship container cable_car subway aircraft wheelchair scooter drone" speed="9.48" length="15.82" shape="2369.44,1295.86 2366.39,1298.47 2361.51,1299.94 2354.81,1300.26"/>
    </edge>
    <edge id=":137470434_19" function="internal">
        <lane id=":137470434_19_0" index="0" disallow="tram rail_urban rail rail_electric rail_fast ship container cable_car subway aircraft wheelchair scooter drone" speed="3.65" length="3.23" shape="2369.77,1293.24 2368.95,1293.58 2368.18,1293.13 2367.46,1291.88"/>
    </edge>
    <edge id=":137470434_9" function="internal">
        <lane id=":137470434_9_0" index="0" disallow="tram rail_urban rail rail_electric rail_fast ship container cable_car subway aircraft wheelchair scooter drone" speed="7.52" length="12.07" shape="2354.91,1297.06 2358.86,1296.83 2361.73,1295.86 2363.54,1294.13 2364.27,1291.65"/>
    </edge>
    <edge id=":137470434_10" function="internal">
        <lane id=":137470434_10_0" index="0" disallow="tram rail_urban rail rail_electric rail_fast ship container cable_car subway aircraft wheelchair scooter drone" speed="18.05" length="27.35" shape="2354.91,1297.06 2382.22,1298.55"/>
    </edge>
    <edge id=":137470434_11" function="internal">
        <lane id=":137470434_11_0" index="0" disallow="tram rail_urban rail rail_electric rail_fast ship container cable_car subway aircraft wheelchair scooter drone" speed="9.27" length="19.86" shape="2354.91,1297.06 2361.59,1297.85 2366.28,1299.72 2368.97,1302.68 2369.67,1306.71"/>
    </edge>
    <edge id=":137470434_12" function="internal">
        <lane id=":137470434_12_0" index="0" disallow="tram rail_urban rail rail_electric rail_fast ship container cable_car subway aircraft wheelchair scooter drone" speed="3.65" length="4.67" shape="2354.91,1297.06 2356.08,1297.90 2356.46,1298.71 2356.03,1299.50 2354.81,1300.26"/>
    </edge>
    <edge id=":137470434_13" function="internal">