<?xml version="1.0" encoding="UTF-8"?>

<!-- generated on 2025-11-16 22:13:49.569803 by randomTrips.py v1_24_0+0000-b72eb3fabc8
<configuration>
    <net-file value="rainbow.net.xml"/>
    <route-file value="rainbow.rou.xml"/>
    <fringe-factor value="10"/>
    <end value="110.0"/>
</configuration>
-->

<routes xmlns:xsi="http://www.w3.org/2001/XMLSchema-instance" xsi:noNamespaceSchemaLocation="http://sumo.dlr.de/xsd/routes_file.xsd">
    <trip id="0" depart="0.00" from="1414574381" to="1414574383#2"/>
    <trip id="1" depart="1.00" from="256354058#3" to="-1408700492#2"/>
    <trip id="2" depart="2.00" from="1037137260#2" to="-1392269854"/>
    <trip id="3" depart="3.00" from="-1359516015#4" to="-690085727#1"/>
    <trip id="4" depart="4.00" from="1393651354" to="1373612155"/>
    <trip id="5" depart="5.00" from="-256397944#6" to="1394376304#1"/>
    <trip id="6" depart="6.00" from="14293342#11" to="-1359516015#2"/>
    <trip id="7" depart="7.00" from="14293342#11" to="1415800614#0"/>
    <trip id="8" depart="8.00" from="1025123964#0" to="-14312156#1"/>
    <trip id="9" depart="9.00" from="590183777#2" to="1043663393"/>
    <trip id="10" depart="10.00" from="-1414574383#2" to="-1414574382"/>
    <trip id="11" depart="11.00" from="1435030515#1" to="1394376304#1"/>
    <trip id="12" depart="12.00" from="14293342#11" to="1422344387#0"/>
    <trip id="13" depart="13.00" from="1025123968#2" to="1392269859"/>
    <trip id="14" depart="14.00" from="234064804#3" to="1392269861"/>
    <trip id="15" depart="15.00" from="-256397944#6" to="1036458933"/>
    <trip id="16" depart="16.00" from="-1414574383#2" to="1036458933"/>
    <trip id="17" depart="17.00" from="1392269861" to="1055949676"/>
    <trip id="18" depart="18.00" from="1025123965#1" to="-690085727#4"/>
    <trip id="19" depart="19.00" from="-690085727#4" to="690085727#6"/>
    <trip id="20" depart="20.00" from="1393651354" to="1394376304#1"/>
    <trip id="21" depart="21.00" from="-14302098#2" to="1422344387#0"/>
    <trip id="22" depart="22.00" from="-14302098#2" to="1055949679#3"/>
    <trip id="23" depart="23.00" from="807121750#3" to="1396490316"/>
    <trip id="24" depart="24.00" from="1227787371#1" to="1414574383#2"/>
    <trip id="25" depart="25.00" from="14312156#3" to="14302098#2"/>
    <trip id="26" depart="26.00" from="-827256521" to="1036458931#0"/>
    <trip id="27" depart="27.00" from="-256397944#4" to="690085727#6"/>
    <trip id="28" depart="28.00" from="256354058#1" to="1037137263#1"/>
    <trip id="29" depart="29.00" from="1393651354" to="1059469656#1"/>
    <trip id="30" depart="30.00" from="256397944#5" to="1359516015#4"/>
    <trip id="31" depart="31.00" from="-690085727#3" to="1025123972#2"/>
    <trip id="32" depart="32.00" from="1359516015#0" to="1036458930#0"/>
    <trip id="33" depart="33.00" from="1429050252" to="1074429760#1"/>
    <trip id="34" depart="34.00" from="807121751" to="1373612155"/>
    <trip id="35" depart="35.00" from="690085727#0" to="256397944#6"/>
    <trip id="36" depart="36.00" from="-1359516015#3" to="1415800622"/>
    <trip id="37" depart="37.00" from="1395027948#1" to="1373612155"/>
    <trip id="38" depart="38.00" from="-690085727#4" to="1396490316"/>
    <trip id="39" depart="39.00" from="-1422344387#0" to="1131521146#1"/>
    <trip id="40" depart="40.00" from="1055949676" to="690085727#6"/>
    <trip id="41" depart="41.00" from="256354058#1" to="1036458930#0"/>
    <trip id="42" depart="42.00" from="1059469667#0" to="-256397944#3"/>
    <trip id="43" depart="43.00" from="256397944#5" to="256397944#6"/>
    <trip id="44" depart="44.00" from="-690085727#6" to="1396490316"/>
    <trip id="45" depart="45.00" from="1361865606#0" to="-14305384"/>
    <trip id="46" depart="46.00" from="1415800617#1" to="1373612155"/>
    <trip id="47" depart="47.00" from="1415800622" to="1373612155"/>
    <trip id="48" depart="48.00" from="-1359516015#0" to="1043663393"/>
    <trip id="49" depart="49.00" from="-1359516015#4" to="690085727#5"/>
    <trip id="50" depart="50.00" from="256354058#1" to="234064804#3"/>
    <trip id="51" depart="51.00" from="-827256521" to="-1393651354"/>
    <trip id="52" depart="52.00" from="256354058#1" to="690085727#6"/>
    <trip id="53" depart="53.00" from="-1414574382" to="1429050251"/>
    <trip id="54" depart="54.00" from="1415800618#0" to="-14293342#11"/>
    <trip id="55" depart="55.00" from="1059469655#3" to="1392269859"/>
    <trip id="56" depart="56.00" from="-690085727#3" to="256397944#6"/>
    <trip id="57" depart="57.00" from="1037137262#2" to="-690085727#5"/>
    <trip id="58" depart="58.00" from="1074429760#1" to="1422344387#0"/>
    <trip id="59" depart="59.00" from="-256397944#0" to="1037137263#0"/>
    <trip id="60" depart="60.00" from="807121751" to="1414574381"/>
    <trip id="61" depart="61.00" from="1037137267" to="1373612155"/>
    <trip id="62" depart="62.00" from="1025123964#0" to="1394376304#0"/>
    <trip id="63" depart="63.00" from="-1414574383#0" to="1395027951"/>
    <trip id="64" depart="64.00" from="-256397944#6" to="642324143#0"/>
    <trip id="65" depart="65.00" from="234064804#2" to="-1408700492#2"/>
    <trip id="66" depart="66.00" from="-256397944#6" to="1414574383#2"/>
    <trip id="67" depart="67.00" from="-256397944#5" to="-14293342#11"/>
    <trip id="68" depart="68.00" from="590183777#0" to="1392269859"/>
    <trip id="69" depart="69.00" from="1059469655#2" to="14302098#2"/>
    <trip id="70" depart="70.00" from="14293342#11" to="-642324143#1"/>
    <trip id="71" depart="71.00" from="-1414574383#2" to="1074430095"/>
    <trip id="72" depart="72.00" from="1037137262#2" to="1359516015#4"/>
    <trip id="73" depart="73.00" from="1408700492#3" to="1414574383#2"/>
    <trip id="74" depart="74.00" from="690085727#4" to="-1414574382"/>
    <trip id="75" depart="75.00" from="1036458923#1" to="1043663393"/>
    <trip id="76" depart="76.00" from="-14312156#3" to="1359516015#1"/>
    <trip id="77" depart="77.00" from="1037137260#2" to="1036458933"/>
    <trip id="78" depart="78.00" from="-642324143#1" to="690085727#3"/>
    <trip id="79" depart="79.00" from="1055949671#0" to="256397944#6"/>
    <trip id="80" depart="80.00" from="642324143#2" to="690085727#4"/>
    <trip id="81" depart="81.00" from="1435030515#2" to="-1435030515#2"/>
    <trip id="82" depart="82.00" from="1059469660" to="-807121750#3"/>
    <trip id="83" depart="83.00" from="-690085727#3" to="14302098#2"/>
    <trip id="84" depart="84.00" from="1055949677#0" to="1074429761#0"/>
    <trip id="85" depart="85.00" from="1227787371#0" to="1415800621"/>
    <trip id="86" depart="86.00" from="-14302098#2" to="1036458933"/>
    <trip id="87" depart="87.00" from="642324143#2" to="1392269861"/>
    <trip id="88" depart="88.00" from="1074429761#0" to="1422344387#0"/>
    <trip id="89" depart="89.00" from="-1361865606#2" to="1392269864"/>
    <trip id="90" depart="90.00" from="1059469667#0" to="256397944#4"/>
    <trip id="91" depart="91.00" from="-14302098#2" to="807121750#3"/>
    <trip id="92" depart="92.00" from="-1414574383#2" to="-256397944#5"/>
    <trip id="93" depart="93.00" from="1360808511" to="1414574383#2"/>
    <trip id="94" depart="94.00" from="-256397944#6" to="-14293342#11"/>
    <trip id="95" depart="95.00" from="256354058#1" to="1025123972#2"/>
    <trip id="96" depart="96.00" from="1360808511" to="1395027948#0"/>
    <trip id="97" depart="97.00" from="1037137260#1" to="1392269864"/>
    <trip id="98" depart="98.00" from="1059469667#0" to="690085727#6"/>
    <trip id="99" depart="99.00" from="-256397944#2" to="1415800620#1"/>
    <trip id="100" depart="100.00" from="-256397944#6" to="1059469656#1"/>
    <trip id="101" depart="101.00" from="1393651354" to="1037137260#0"/>
    <trip id="102" depart="102.00" from="-827256521" to="1422344387#0"/>
    <trip id="103" depart="103.00" from="-1414574383#0" to="1359516015#4"/>
    <trip id="104" depart="104.00" from="-1414574383#1" to="-807121750#3"/>
    <trip id="105" depart="105.00" from="-690085727#3" to="690085727#6"/>
    <trip id="106" depart="106.00" from="256354058#1" to="256397944#6"/>
    <trip id="107" depart="107.00" from="1025123965#1" to="-14312156#2"/>
    <trip id="108" depart="108.00" from="1361865606#1" to="827256521"/>
    <trip id="109" depart="109.00" from="1393651354" to="-1359516015#2"/>
</routes>
